data_image0
_chemical_formula_structural       Cu15
_chemical_formula_sum              "Cu15"
_cell_length_a       5.11196
_cell_length_b       5.11196
_cell_length_c       31.8073
_cell_angle_alpha    90
_cell_angle_beta     90
_cell_angle_gamma    90

_space_group_name_H-M_alt    "P 1"
_space_group_IT_number       1

loop_
  _space_group_symop_operation_xyz
  'x, y, z'

loop_
  _atom_site_type_symbol
  _atom_site_label
  _atom_site_symmetry_multiplicity
  _atom_site_fract_x
  _atom_site_fract_y
  _atom_site_fract_z
  _atom_site_occupancy
  Cu  Cu1       1.0  0.25000  0.25000  0.47159  1.0000
  Cu  Cu2       1.0  0.75000  0.25000  0.47159  1.0000
  Cu  Cu3       1.0  0.25000  0.75000  0.47159  1.0000
  Cu  Cu4       1.0  0.75000  0.75000  0.47159  1.0000
  Cu  Cu5       1.0  0.00000  0.00000  0.52841  1.0000
  Cu  Cu6       1.0  0.50000  0.00000  0.52841  1.0000
  Cu  Cu7       1.0  0.00000  0.50000  0.52841  1.0000
  Cu  Cu8       1.0  0.50000  0.50000  0.52841  1.0000
  Cu  Cu9       1.0  0.25000  0.75000  0.56991  1.0000
  Cu  Cu10      1.0  0.25000  0.00000  0.60104  1.0000
  Cu  Cu11      1.0  0.75000  0.75000  0.56991  1.0000
  Cu  Cu12      1.0  0.75000  0.25000  0.56991  1.0000
  Cu  Cu13      1.0  0.25000  0.25000  0.56991  1.0000
  Cu  Cu14      1.0  0.50000  0.25000  0.60104  1.0000
  Cu  Cu15      1.0  0.50000  0.75000  0.60104  1.0000
