data_image0
_chemical_formula_structural       O9Sr3Ti3O9Sr3Ti3O9Sr3Ti3O9Sr3Ti3
_chemical_formula_sum              "O36 Sr12 Ti12"
_cell_length_a       7.87108
_cell_length_b       7.96999
_cell_length_c       24.8388
_cell_angle_alpha    90
_cell_angle_beta     90
_cell_angle_gamma    90

_space_group_name_H-M_alt    "P 1"
_space_group_IT_number       1

loop_
  _space_group_symop_operation_xyz
  'x, y, z'

loop_
  _atom_site_type_symbol
  _atom_site_label
  _atom_site_symmetry_multiplicity
  _atom_site_fract_x
  _atom_site_fract_y
  _atom_site_fract_z
  _atom_site_occupancy
  O   O1        1.0  0.25000  0.00000  0.30195  1.0000
  O   O2        1.0  0.00000  0.00000  0.38117  1.0000
  O   O3        1.0  0.25000  0.25011  0.38117  1.0000
  O   O4        1.0  0.25000  0.00000  0.46039  1.0000
  O   O5        1.0  0.00000  0.00000  0.53961  1.0000
  O   O6        1.0  0.25000  0.25011  0.53961  1.0000
  O   O7        1.0  0.25000  0.00000  0.61883  1.0000
  O   O8        1.0  0.00000  0.99632  0.69724  1.0000
  O   O9        1.0  0.25000  0.24505  0.69553  1.0000
  Sr  Sr1       1.0  0.00000  0.26502  0.30195  1.0000
  Sr  Sr2       1.0  0.00000  0.26502  0.46039  1.0000
  Sr  Sr3       1.0  0.00000  0.26502  0.61883  1.0000
  Ti  Ti1       1.0  0.25000  0.01582  0.38117  1.0000
  Ti  Ti2       1.0  0.25000  0.01582  0.53961  1.0000
  Ti  Ti3       1.0  0.25000  0.01803  0.69387  1.0000
  O   O10       1.0  0.25000  0.50000  0.30195  1.0000
  O   O11       1.0  0.00000  0.50000  0.38117  1.0000
  O   O12       1.0  0.25000  0.75011  0.38117  1.0000
  O   O13       1.0  0.25000  0.50000  0.46039  1.0000
  O   O14       1.0  0.00000  0.50000  0.53961  1.0000
  O   O15       1.0  0.25000  0.75011  0.53961  1.0000
  O   O16       1.0  0.25000  0.50000  0.61883  1.0000
  O   O17       1.0  0.00000  0.49632  0.69724  1.0000
  O   O18       1.0  0.25000  0.74505  0.69553  1.0000
  Sr  Sr4       1.0  0.00000  0.76502  0.30195  1.0000
  Sr  Sr5       1.0  0.00000  0.76502  0.46039  1.0000
  Sr  Sr6       1.0  0.00000  0.76502  0.61883  1.0000
  Ti  Ti4       1.0  0.25000  0.51582  0.38117  1.0000
  Ti  Ti5       1.0  0.25000  0.51582  0.53961  1.0000
  Ti  Ti6       1.0  0.25000  0.51803  0.69387  1.0000
  O   O19       1.0  0.75000  0.00000  0.30195  1.0000
  O   O20       1.0  0.50000  0.00000  0.38117  1.0000
  O   O21       1.0  0.75000  0.25011  0.38117  1.0000
  O   O22       1.0  0.75000  0.00000  0.46039  1.0000
  O   O23       1.0  0.50000  0.00000  0.53961  1.0000
  O   O24       1.0  0.75000  0.25011  0.53961  1.0000
  O   O25       1.0  0.75000  0.00000  0.61883  1.0000
  O   O26       1.0  0.50000  0.99632  0.69724  1.0000
  O   O27       1.0  0.75000  0.24505  0.69553  1.0000
  Sr  Sr7       1.0  0.50000  0.26502  0.30195  1.0000
  Sr  Sr8       1.0  0.50000  0.26502  0.46039  1.0000
  Sr  Sr9       1.0  0.50000  0.26502  0.61883  1.0000
  Ti  Ti7       1.0  0.75000  0.01582  0.38117  1.0000
  Ti  Ti8       1.0  0.75000  0.01582  0.53961  1.0000
  Ti  Ti9       1.0  0.75000  0.01803  0.69387  1.0000
  O   O28       1.0  0.75000  0.50000  0.30195  1.0000
  O   O29       1.0  0.50000  0.50000  0.38117  1.0000
  O   O30       1.0  0.75000  0.75011  0.38117  1.0000
  O   O31       1.0  0.75000  0.50000  0.46039  1.0000
  O   O32       1.0  0.50000  0.50000  0.53961  1.0000
  O   O33       1.0  0.75000  0.75011  0.53961  1.0000
  O   O34       1.0  0.75000  0.50000  0.61883  1.0000
  O   O35       1.0  0.50000  0.49632  0.69724  1.0000
  O   O36       1.0  0.75000  0.74505  0.69553  1.0000
  Sr  Sr10      1.0  0.50000  0.76502  0.30195  1.0000
  Sr  Sr11      1.0  0.50000  0.76502  0.46039  1.0000
  Sr  Sr12      1.0  0.50000  0.76502  0.61883  1.0000
  Ti  Ti10      1.0  0.75000  0.51582  0.38117  1.0000
  Ti  Ti11      1.0  0.75000  0.51582  0.53961  1.0000
  Ti  Ti12      1.0  0.75000  0.51803  0.69387  1.0000
